** This is Test8 in Test Jobs
** THis is the first Test for CircRefine branch.
** GMPT=1
** alpha = 0.500
** num_el_fine_th = 3
** Imperfection = 0.0 #Not percentage
** Eccentricity = 0.0 #Not percentage
** Rm = 0.8391
** tg = 0.0500
** ID = 1.6282
** constit = "vm"
** Fluid Cavity and elements.  If alpha = 0.5, then flux control
** Generated on 5/26/2017 at 13:17
*Heading
Z is Tube Axis
Min Wall Thickness is (x>0,y=0)
*Preprint, echo=NO, model=NO, history=NO, contact=NO
****************************************
***************** PART *****************
****************************************
*part, name=PART
*node, nset=NS_ALLNODES
1, 0.814250000000, 0.000000000000, 0.000000000000
2, 0.814078355696, 0.016718052746, 0.000000000000
3, 0.813563495149, 0.033429057145, 0.000000000000
4, 0.812705635424, 0.050125967820, 0.000000000000
5, 0.811505138197, 0.066801745337, 0.000000000000
6, 0.809962509598, 0.083449359172, 0.000000000000
7, 0.808078400000, 0.100061790674, 0.000000000000
8, 0.805853603747, 0.116632036026, 0.000000000000
9, 0.803289058815, 0.133153109195, 0.000000000000
10, 0.800385846418, 0.149618044882, 0.000000000000
11, 0.797145190553, 0.166019901453, 0.000000000000
12, 0.793568457484, 0.182351763868, 0.000000000000
13, 0.789657155167, 0.198606746598, 0.000000000000
14, 0.785412932608, 0.214777996527, 0.000000000000
15, 0.780837579177, 0.230858695840, 0.000000000000
16, 0.775933023848, 0.246842064897, 0.000000000000
17, 0.770701334385, 0.262721365094, 0.000000000000
18, 0.765144716475, 0.278489901703, 0.000000000000
19, 0.759265512792, 0.294141026693, 0.000000000000
20, 0.753066202016, 0.309668141534, 0.000000000000
** ... 14796 like lines cut
*element, type=C3D8R, elset=ES_ALLELEMENTS
1, 114, 142, 141, 113, 2, 30, 29, 1
2, 142, 170, 169, 141, 30, 58, 57, 29
3, 170, 198, 197, 169, 58, 86, 85, 57
4, 115, 143, 142, 114, 3, 31, 30, 2
5, 143, 171, 170, 142, 31, 59, 58, 30
6, 171, 199, 198, 170, 59, 87, 86, 58
7, 116, 144, 143, 115, 4, 32, 31, 3
8, 144, 172, 171, 143, 32, 60, 59, 31
9, 172, 200, 199, 171, 60, 88, 87, 59
10, 117, 145, 144, 116, 5, 33, 32, 4
11, 145, 173, 172, 144, 33, 61, 60, 32
12, 173, 201, 200, 172, 61, 89, 88, 60
13, 118, 146, 145, 117, 6, 34, 33, 5
14, 146, 174, 173, 145, 34, 62, 61, 33
15, 174, 202, 201, 173, 62, 90, 89, 61
16, 119, 147, 146, 118, 7, 35, 34, 6
17, 147, 175, 174, 146, 35, 63, 62, 34
18, 175, 203, 202, 174, 63, 91, 90, 62
19, 120, 148, 147, 119, 8, 36, 35, 7
20, 148, 176, 175, 147, 36, 64, 63, 35
** ... 9988 like lines cut
*nset, nset=NS_TOPSURFACE
10465, 10466, 10467, 10468, 10469, 10470, 10471, 10472, 10473, 10474, 10475, 10476, 10477, 10478, 10479, 10480
10481, 10482, 10483, 10484, 10485, 10486, 10487, 10488, 10489, 10490, 10491, 10492, 10493, 10494, 10495, 10496
10497, 10498, 10499, 10500
*nset, nset=NS_BOTTOMSURFACE
1, 2, 3, 4, 5, 6, 7, 8, 9, 10, 11, 12, 13, 14, 15, 16
17, 18, 19, 20, 21, 22, 23, 24, 25, 26, 27, 28, 29, 30, 31, 32
33, 34, 35, 36, 37, 38, 39, 40, 41, 42, 43, 44, 45, 46, 47, 48
49, 50, 51, 52, 53, 54, 55, 56, 57, 58, 59, 60, 61, 62, 63, 64
65, 66, 67, 68, 69, 70, 71, 72, 73, 74, 75, 76, 77, 78, 79, 80
81, 82, 83, 84, 85, 86, 87, 88, 89, 90, 91, 92, 93, 94, 95, 96
97, 98, 99, 100, 101, 102, 103, 104, 105, 106, 107, 108, 109, 110, 111, 112
10501, 10502, 10503, 10504, 10505, 10506, 10507, 10508, 10509, 10510, 10511, 10512, 10513, 10514, 10515, 10516
10517, 10518, 10519, 10520, 10521, 10522, 10523, 10524, 10525, 10526, 10527, 10528, 10529, 10530, 10531, 10532
10533, 10534, 10535, 10536, 10537, 10538, 10539, 10540, 10541, 10542, 10543, 10544, 10545, 10546, 10547, 10548
10549, 10550, 10551, 10552, 10553, 10554, 10555, 10556, 10557, 10558, 10559, 10560, 10561, 10562, 10563, 10564
10565, 10566, 10567, 10568, 10569, 10570, 10571, 10572, 10573, 10574, 10575, 10576, 10577, 10578, 10579, 10580
10581, 10582, 10583, 10584, 10585, 10586, 10587, 10588, 10589, 10590, 10591, 10592, 10593, 10594, 10595, 10596
10597, 10598, 10599, 10600, 10601, 10602, 10603, 10604, 10605, 10606, 10607, 10608, 10609, 10610, 10611, 10612
10613, 10614, 10615, 10616, 10617, 10618, 10619, 10620, 10621, 10622, 10623, 10624, 10625, 10626, 10627, 10628
10629, 10630, 10631, 10632, 10633, 10634, 10635, 10636, 10637, 10638, 10639, 10640, 10641, 10642, 10643, 10644
10645, 10646, 10647, 10648, 10649, 10650, 10651, 10652, 10653, 10654, 10655, 10656, 10657, 10658, 10659, 10660
10661, 10662, 10663, 10664, 10665, 10666, 10667, 10668
*nset, nset=NS_DISPROT_HI
10411
*nset, nset=NS_DISPROT_LO
3557
*nset, nset=NS_DISPROT_LO_BACK
12516
*nset, nset=NS_RADIALCONTRACTION
85, 197, 309, 421, 533, 645, 757, 869, 981, 1093, 1205, 1317, 1429, 1541, 1653, 1765
1877, 1989, 2101, 2213, 2325, 2437, 2549, 2661, 2773, 2885, 2997, 3109, 3221, 3333, 3445, 3557
3669, 3781, 3893, 4005, 4117, 4229, 4341, 4453, 4565, 4677, 4789, 4901, 5013, 5125, 5237, 5349
5461, 5573, 5685, 5797, 5909, 6021, 6133, 6245, 6357, 6469, 6581, 6693, 6805, 6917, 7029, 7141
14425, 7221, 7325, 7429, 7533, 7637, 7741, 7845, 7949, 8053, 8157, 8261, 8365, 8469, 8573, 8677
8781, 8885, 8989, 9093, 9197, 9301, 9405, 9509, 9613, 9717, 9821, 9925, 10029, 10133, 10237, 10341
10411, 10447, 10483
*nset, nset=NS_AXIALSYMM
1, 29, 57, 85, 113, 141, 169, 197, 225, 253, 281, 309, 337, 365, 393, 421
449, 477, 505, 533, 561, 589, 617, 645, 673, 701, 729, 757, 785, 813, 841, 869
897, 925, 953, 981, 1009, 1037, 1065, 1093, 1121, 1149, 1177, 1205, 1233, 1261, 1289, 1317
1345, 1373, 1401, 1429, 1457, 1485, 1513, 1541, 1569, 1597, 1625, 1653, 1681, 1709, 1737, 1765
1793, 1821, 1849, 1877, 1905, 1933, 1961, 1989, 2017, 2045, 2073, 2101, 2129, 2157, 2185, 2213
2241, 2269, 2297, 2325, 2353, 2381, 2409, 2437, 2465, 2493, 2521, 2549, 2577, 2605, 2633, 2661
2689, 2717, 2745, 2773, 2801, 2829, 2857, 2885, 2913, 2941, 2969, 2997, 3025, 3053, 3081, 3109
3137, 3165, 3193, 3221, 3249, 3277, 3305, 3333, 3361, 3389, 3417, 3445, 3473, 3501, 3529, 3557
3585, 3613, 3641, 3669, 3697, 3725, 3753, 3781, 3809, 3837, 3865, 3893, 3921, 3949, 3977, 4005
4033, 4061, 4089, 4117, 4145, 4173, 4201, 4229, 4257, 4285, 4313, 4341, 4369, 4397, 4425, 4453
4481, 4509, 4537, 4565, 4593, 4621, 4649, 4677, 4705, 4733, 4761, 4789, 4817, 4845, 4873, 4901
4929, 4957, 4985, 5013, 5041, 5069, 5097, 5125, 5153, 5181, 5209, 5237, 5265, 5293, 5321, 5349
5377, 5405, 5433, 5461, 5489, 5517, 5545, 5573, 5601, 5629, 5657, 5685, 5713, 5741, 5769, 5797
5825, 5853, 5881, 5909, 5937, 5965, 5993, 6021, 6049, 6077, 6105, 6133, 6161, 6189, 6217, 6245
6273, 6301, 6329, 6357, 6385, 6413, 6441, 6469, 6497, 6525, 6553, 6581, 6609, 6637, 6665, 6693
6721, 6749, 6777, 6805, 6833, 6861, 6889, 6917, 6945, 6973, 7001, 7029, 7057, 7085, 7113, 7141
7169, 7220, 7221, 7272, 7273, 7324, 7325, 7376, 7377, 7428, 7429, 7480, 7481, 7532, 7533, 7584
7585, 7636, 7637, 7688, 7689, 7740, 7741, 7792, 7793, 7844, 7845, 7896, 7897, 7948, 7949, 8000
8001, 8052, 8053, 8104, 8105, 8156, 8157, 8208, 8209, 8260, 8261, 8312, 8313, 8364, 8365, 8416
8417, 8468, 8469, 8520, 8521, 8572, 8573, 8624, 8625, 8676, 8677, 8728, 8729, 8780, 8781, 8832
** ... 11 like lines cut
*elset, elset=ES_Z
3, 84, 165, 246, 327, 408, 489, 570, 651, 732, 813, 894, 975, 1056, 1137, 1218
1299, 1380, 1461, 1542, 1623, 1704, 1785, 1866, 1947, 2028, 2109, 2190, 2271, 2352, 2433, 2514
2595, 2676, 2757, 2838, 2919, 3000, 3081, 3162, 3243, 3324, 3405, 3486, 3567, 3648, 3729, 3810
3891, 3972, 4053, 4134, 4215, 4296, 4377, 4458, 4539, 4620, 4701, 4782, 4863, 4944, 5025, 9376
5104, 5155, 5206, 5257, 5308, 5359, 5410, 5461, 5512, 5563, 5614, 5665, 5716, 5767, 5818, 5869
5920, 5971, 9483, 9485
*elset, elset=ES_THICKNESS
1, 2, 3
*elset, elset=ES_THICKNESS_BACK
6788, 6789, 6790
*elset, elset=ES_THICKNESS_SIDE
6716, 6717, 6718
*elset, elset=ES_WHOLEID
1 ,4 ,7 ,10 ,13 ,16 ,19 ,22 ,25 ,28 ,31 ,34 ,37 ,40 ,43 ,46
49 ,52 ,55 ,58 ,61 ,64 ,67 ,70 ,73 ,76 ,79 ,82 ,85 ,88 ,91 ,94
97 ,100 ,103 ,106 ,109 ,112 ,115 ,118 ,121 ,124 ,127 ,130 ,133 ,136 ,139 ,142
145 ,148 ,151 ,154 ,157 ,160 ,163 ,166 ,169 ,172 ,175 ,178 ,181 ,184 ,187 ,190
193 ,196 ,199 ,202 ,205 ,208 ,211 ,214 ,217 ,220 ,223 ,226 ,229 ,232 ,235 ,238
241 ,244 ,247 ,250 ,253 ,256 ,259 ,262 ,265 ,268 ,271 ,274 ,277 ,280 ,283 ,286
289 ,292 ,295 ,298 ,301 ,304 ,307 ,310 ,313 ,316 ,319 ,322 ,325 ,328 ,331 ,334
337 ,340 ,343 ,346 ,349 ,352 ,355 ,358 ,361 ,364 ,367 ,370 ,373 ,376 ,379 ,382
385 ,388 ,391 ,394 ,397 ,400 ,403 ,406 ,409 ,412 ,415 ,418 ,421 ,424 ,427 ,430
433 ,436 ,439 ,442 ,445 ,448 ,451 ,454 ,457 ,460 ,463 ,466 ,469 ,472 ,475 ,478
481 ,484 ,487 ,490 ,493 ,496 ,499 ,502 ,505 ,508 ,511 ,514 ,517 ,520 ,523 ,526
529 ,532 ,535 ,538 ,541 ,544 ,547 ,550 ,553 ,556 ,559 ,562 ,565 ,568 ,571 ,574
577 ,580 ,583 ,586 ,589 ,592 ,595 ,598 ,601 ,604 ,607 ,610 ,613 ,616 ,619 ,622
625 ,628 ,631 ,634 ,637 ,640 ,643 ,646 ,649 ,652 ,655 ,658 ,661 ,664 ,667 ,670
673 ,676 ,679 ,682 ,685 ,688 ,691 ,694 ,697 ,700 ,703 ,706 ,709 ,712 ,715 ,718
721 ,724 ,727 ,730 ,733 ,736 ,739 ,742 ,745 ,748 ,751 ,754 ,757 ,760 ,763 ,766
769 ,772 ,775 ,778 ,781 ,784 ,787 ,790 ,793 ,796 ,799 ,802 ,805 ,808 ,811 ,814
817 ,820 ,823 ,826 ,829 ,832 ,835 ,838 ,841 ,844 ,847 ,850 ,853 ,856 ,859 ,862
865 ,868 ,871 ,874 ,877 ,880 ,883 ,886 ,889 ,892 ,895 ,898 ,901 ,904 ,907 ,910
913 ,916 ,919 ,922 ,925 ,928 ,931 ,934 ,937 ,940 ,943 ,946 ,949 ,952 ,955 ,958
** ... 256 like lines cut
*node, nset=NS_RPTOP
14817, 0, 0, 2.624899959968
*node, nset=RP_CAV
14818, 0, 0, 0
*element, type=SFM3D3, elset=ES_SURFELS
10009, 10466, 10465, 14817
10010, 10466, 14817, 10467
10011, 10468, 14817, 10469
10012, 10467, 14817, 10468
10013, 14817, 10474, 10473
10014, 10472, 14817, 10473
10015, 10469, 14817, 10470
10016, 14817, 10482, 10481
10017, 10480, 14817, 10481
10018, 10478, 14817, 10479
10019, 10479, 14817, 10480
10020, 10475, 10474, 14817
10021, 10475, 14817, 10476
10022, 10477, 14817, 10478
10023, 10476, 14817, 10477
10024, 10471, 14817, 10472
10025, 10470, 14817, 10471
*orientation, name=ANISOTROPY, system=cylindrical, definition=coordinates
0, 0, 0, 0, 0, 1
*solid section, elset=ES_ALLELEMENTS, material=MATERIAL, orientation=ANISOTROPY
*Hourglass Stiffness
40.0, , , 
*transform, nset=NS_ALLNODES, type=C
0, 0, 0, 0, 0, 1
*surface section, elset=ES_SURFELS
*end part
****************************************
*************** Assembly ***************
****************************************
*assembly, name=ASSEMBLY
*instance, name=INSTANCE, part=PART
*end instance
*transform, nset=INSTANCE.NS_RPTOP, type=C
0, 0, 0, 0, 0, 1
** Riks displacement monitoring node must be defined in the assembly
*nset, nset=RIKSMON, instance=INSTANCE
NS_DISPROT_LO
*surface, type=node, name=SURF_TOPSURFACE
INSTANCE.NS_TOPSURFACE
*surface, type=node, name=SURF_BOTSURFACE
INSTANCE.NS_BOTTOMSURFACE
*surface, type=element, name=SURF_IDSURFACE
INSTANCE.ES_WHOLEID, S6
*orientation, name=ORI_COUPLING, system=cylindrical, definition=coordinates
0, 0, 0, 0, 0, 1
*coupling, constraint name=CONSTRAINT_TOPSURFACE, ref nod=INSTANCE.NS_RPTOP, surface=SURF_TOPSURFACE, orientation=ORI_COUPLING
*kinematic
** Surface definition for the fluid cavity
*surface, type=element, name=SURF_CAVITY
INSTANCE.ES_SURFELS, SPOS
INSTANCE.ES_WHOLEID, S6
*end assembly
****************************************
***************  MATERIAL **************
****************************************
*material, name=MATERIAL
*elastic
10250, 0.33
*plastic
30.717841110000, 0.000000000000
33.070245804398, 0.000165780000
35.672102167082, 0.000618690000
37.193129513124, 0.001246940000
38.184682684043, 0.001961030000
38.894286762538, 0.002731420000
39.429114723279, 0.003552630000
39.843700583721, 0.004402730000
40.177917762759, 0.005277280000
40.458109304982, 0.006180060000
40.695672150690, 0.007120450000
40.900212178726, 0.008076230000
41.078961366067, 0.009048880000
41.238625450132, 0.010038990000
41.382974283433, 0.011031750000
41.515141724856, 0.012023250000
41.638464427956, 0.013006030000
41.754656081369, 0.013970050000
41.865655729165, 0.014911140000
41.972684725448, 0.015829610000
** ... 325 like lines cut
****************************************
*************** FLUID CAV  *************
****************************************
*fluid behavior, name=FLUID
*fluid density
1.0
*fluid cavity, name=FLUIDCAVITY, behavior=FLUID, refnode=INSTANCE.RP_CAV, surface=SURF_CAVITY

*boundary
** Top Ref Pt:  Only U3, UR3 permitted
INSTANCE.NS_RPTOP, 1, 2
INSTANCE.NS_RPTOP, 4, 5
** AxialSymmetry Nodes:  Same as YSYMM
INSTANCE.NS_AXIALSYMM, 2, 
**INSTANCE.NS_AXIALSYMM, 4, 
**INSTANCE.NS_AXIALSYMM, 6, 
** Bottom surface nodes:  Same as ZSYMM
INSTANCE.NS_BOTTOMSURFACE, 3, 3 
** Cavity reference node fully constrained
INSTANCE.RP_CAV, 1, 6
****************************************
*************** STEP *******************
****************************************
*step, name=STEP, nlgeom=yes, inc=200
*static
0.0025, 1., 1e-06, .0025
*fluid flux
INSTANCE.RP_CAV, 0.968
*output, field, frequency=1
** COORn must be called under history output, but COORD can be called in field
*node output, nset=INSTANCE.NS_DISPROT_LO
U, UR
*node output, nset=INSTANCE.NS_DISPROT_HI
U, UR
*node output, nset=INSTANCE.NS_ALLNODES
U, UR
*node output, nset=INSTANCE.NS_RPTOP
U, UR, CF
*element output, elset=INSTANCE.ES_ALLELEMENTS, directions=YES
S, PE, LE, P
*output, history, frequency=1
*node output, nset=INSTANCE.RP_CAV
CVOL, PCAV
*end step
