** This is "Test7" in the Testjobs folder.
** GMPT=1
** alpha = 0.500
** num_el_fine_th = 3
** Imperfection = 0.0 #Not percentage
** Eccentricity = 0.0 #Not percentage
** Rm = 0.8391
** tg = 0.0500
** ID = 1.6282
** constit = "vm"
** Fluid Cavity and elements.  If alpha = 0.5, then flux control
** Generated on 5/19/2017 at 16:29
*Heading
Z is Tube Axis
Min Wall Thickness is (x>0,y=0)
*Preprint, echo=NO, model=NO, history=NO, contact=NO
****************************************
***************** PART *****************
****************************************
*part, name=PART
*node, nset=NS_ALLNODES
1, 0.814100000000, 0.000000000000, 0.000000000000
2, 0.813928387316, 0.016714972970, 0.000000000000
3, 0.813413621616, 0.033422898890, 0.000000000000
4, 0.812555919925, 0.050116733684, 0.000000000000
5, 0.811355643852, 0.066789439212, 0.000000000000
6, 0.809813299433, 0.083433986247, 0.000000000000
7, 0.807929536924, 0.100043357430, 0.000000000000
8, 0.805705150520, 0.116610550235, 0.000000000000
9, 0.803141078024, 0.133128579915, 0.000000000000
10, 0.800238400453, 0.149590482454, 0.000000000000
11, 0.796998341577, 0.165989317498, 0.000000000000
12, 0.793422267409, 0.182318171280, 0.000000000000
13, 0.789511685626, 0.198570159540, 0.000000000000
14, 0.785268244932, 0.214738430424, 0.000000000000
15, 0.780693734367, 0.230816167372, 0.000000000000
16, 0.775790082548, 0.246796591995, 0.000000000000
17, 0.770559356860, 0.262672966930, 0.000000000000
18, 0.765003762582, 0.278438598681, 0.000000000000
19, 0.759125641958, 0.294086840443, 0.000000000000
20, 0.752927473210, 0.309611094901, 0.000000000000
** ... 41668 like lines cut
*element, type=C3D8R, elset=ES_ALLELEMENTS
1, 618, 772, 771, 617, 2, 156, 155, 1
2, 772, 926, 925, 771, 156, 310, 309, 155
3, 926, 1080, 1079, 925, 310, 464, 463, 309
4, 619, 773, 772, 618, 3, 157, 156, 2
5, 773, 927, 926, 772, 157, 311, 310, 156
6, 927, 1081, 1080, 926, 311, 465, 464, 310
7, 620, 774, 773, 619, 4, 158, 157, 3
8, 774, 928, 927, 773, 158, 312, 311, 157
9, 928, 1082, 1081, 927, 312, 466, 465, 311
10, 621, 775, 774, 620, 5, 159, 158, 4
11, 775, 929, 928, 774, 159, 313, 312, 158
12, 929, 1083, 1082, 928, 313, 467, 466, 312
13, 622, 776, 775, 621, 6, 160, 159, 5
14, 776, 930, 929, 775, 160, 314, 313, 159
15, 930, 1084, 1083, 929, 314, 468, 467, 313
16, 623, 777, 776, 622, 7, 161, 160, 6
17, 777, 931, 930, 776, 161, 315, 314, 160
18, 931, 1085, 1084, 930, 315, 469, 468, 314
19, 624, 778, 777, 623, 8, 162, 161, 7
20, 778, 932, 931, 777, 162, 316, 315, 161
** ... 30121 like lines cut
*nset, nset=NS_TOPSURFACE
40865, 40866, 40867, 40868, 40869, 40870, 40871, 40872, 40873, 40874, 40875, 40876, 40877, 40878, 40879, 40880
40881, 40882, 40883, 40884, 40885, 40886, 40887, 40888, 40889, 40890, 40891, 40892, 40893, 40894, 40895, 40896
40897, 40898, 40899, 40900
*nset, nset=NS_BOTTOMSURFACE
1, 2, 3, 4, 5, 6, 7, 8, 9, 10, 11, 12, 13, 14, 15, 16
17, 18, 19, 20, 21, 22, 23, 24, 25, 26, 27, 28, 29, 30, 31, 32
33, 34, 35, 36, 37, 38, 39, 40, 41, 42, 43, 44, 45, 46, 47, 48
49, 50, 51, 52, 53, 54, 55, 56, 57, 58, 59, 60, 61, 62, 63, 64
65, 66, 67, 68, 69, 70, 71, 72, 73, 74, 75, 76, 77, 78, 79, 80
81, 82, 83, 84, 85, 86, 87, 88, 89, 90, 91, 92, 93, 94, 95, 96
97, 98, 99, 100, 101, 102, 103, 104, 105, 106, 107, 108, 109, 110, 111, 112
113, 114, 115, 116, 117, 118, 119, 120, 121, 122, 123, 124, 125, 126, 127, 128
129, 130, 131, 132, 133, 134, 135, 136, 137, 138, 139, 140, 141, 142, 143, 144
145, 146, 147, 148, 149, 150, 151, 152, 153, 154, 155, 156, 157, 158, 159, 160
161, 162, 163, 164, 165, 166, 167, 168, 169, 170, 171, 172, 173, 174, 175, 176
177, 178, 179, 180, 181, 182, 183, 184, 185, 186, 187, 188, 189, 190, 191, 192
193, 194, 195, 196, 197, 198, 199, 200, 201, 202, 203, 204, 205, 206, 207, 208
209, 210, 211, 212, 213, 214, 215, 216, 217, 218, 219, 220, 221, 222, 223, 224
225, 226, 227, 228, 229, 230, 231, 232, 233, 234, 235, 236, 237, 238, 239, 240
241, 242, 243, 244, 245, 246, 247, 248, 249, 250, 251, 252, 253, 254, 255, 256
257, 258, 259, 260, 261, 262, 263, 264, 265, 266, 267, 268, 269, 270, 271, 272
273, 274, 275, 276, 277, 278, 279, 280, 281, 282, 283, 284, 285, 286, 287, 288
289, 290, 291, 292, 293, 294, 295, 296, 297, 298, 299, 300, 301, 302, 303, 304
305, 306, 307, 308, 309, 310, 311, 312, 313, 314, 315, 316, 317, 318, 319, 320
** ... 19 like lines cut
*nset, nset=NS_DISPROT_HI
40811
*nset, nset=NS_DISPROT_LO
18943
*nset, nset=NS_DISPROT_LO_BACK
19096
*nset, nset=NS_RADIALCONTRACTION
463, 1079, 1695, 2311, 2927, 3543, 4159, 4775, 5391, 6007, 6623, 7239, 7855, 8471, 9087, 9703
10319, 10935, 11551, 12167, 12783, 13399, 14015, 14631, 15247, 15863, 16479, 17095, 17711, 18327, 18943, 19559
20175, 20791, 21407, 22023, 22639, 23255, 23871, 24487, 25103, 25719, 26335, 26951, 27567, 28183, 28799, 29415
30031, 30647, 31263, 31879, 32495, 33111, 33727, 34343, 34959, 35575, 36191, 36807, 37423, 38039, 41465, 38245
38349, 38453, 38557, 38661, 38765, 38869, 38973, 39077, 39181, 39285, 39389, 39493, 39597, 39701, 39805, 39909
40013, 40117, 40221, 40325, 40429, 40533, 40637, 40741, 40811, 40847, 40883
*nset, nset=NS_AXIALSYMM
1, 154, 155, 308, 309, 462, 463, 616, 617, 770, 771, 924, 925, 1078, 1079, 1232
1233, 1386, 1387, 1540, 1541, 1694, 1695, 1848, 1849, 2002, 2003, 2156, 2157, 2310, 2311, 2464
2465, 2618, 2619, 2772, 2773, 2926, 2927, 3080, 3081, 3234, 3235, 3388, 3389, 3542, 3543, 3696
3697, 3850, 3851, 4004, 4005, 4158, 4159, 4312, 4313, 4466, 4467, 4620, 4621, 4774, 4775, 4928
4929, 5082, 5083, 5236, 5237, 5390, 5391, 5544, 5545, 5698, 5699, 5852, 5853, 6006, 6007, 6160
6161, 6314, 6315, 6468, 6469, 6622, 6623, 6776, 6777, 6930, 6931, 7084, 7085, 7238, 7239, 7392
7393, 7546, 7547, 7700, 7701, 7854, 7855, 8008, 8009, 8162, 8163, 8316, 8317, 8470, 8471, 8624
8625, 8778, 8779, 8932, 8933, 9086, 9087, 9240, 9241, 9394, 9395, 9548, 9549, 9702, 9703, 9856
9857, 10010, 10011, 10164, 10165, 10318, 10319, 10472, 10473, 10626, 10627, 10780, 10781, 10934, 10935, 11088
11089, 11242, 11243, 11396, 11397, 11550, 11551, 11704, 11705, 11858, 11859, 12012, 12013, 12166, 12167, 12320
12321, 12474, 12475, 12628, 12629, 12782, 12783, 12936, 12937, 13090, 13091, 13244, 13245, 13398, 13399, 13552
13553, 13706, 13707, 13860, 13861, 14014, 14015, 14168, 14169, 14322, 14323, 14476, 14477, 14630, 14631, 14784
14785, 14938, 14939, 15092, 15093, 15246, 15247, 15400, 15401, 15554, 15555, 15708, 15709, 15862, 15863, 16016
16017, 16170, 16171, 16324, 16325, 16478, 16479, 16632, 16633, 16786, 16787, 16940, 16941, 17094, 17095, 17248
17249, 17402, 17403, 17556, 17557, 17710, 17711, 17864, 17865, 18018, 18019, 18172, 18173, 18326, 18327, 18480
18481, 18634, 18635, 18788, 18789, 18942, 18943, 19096, 19097, 19250, 19251, 19404, 19405, 19558, 19559, 19712
19713, 19866, 19867, 20020, 20021, 20174, 20175, 20328, 20329, 20482, 20483, 20636, 20637, 20790, 20791, 20944
20945, 21098, 21099, 21252, 21253, 21406, 21407, 21560, 21561, 21714, 21715, 21868, 21869, 22022, 22023, 22176
22177, 22330, 22331, 22484, 22485, 22638, 22639, 22792, 22793, 22946, 22947, 23100, 23101, 23254, 23255, 23408
23409, 23562, 23563, 23716, 23717, 23870, 23871, 24024, 24025, 24178, 24179, 24332, 24333, 24486, 24487, 24640
** ... 20 like lines cut
*elset, elset=ES_Z
3, 462, 921, 1380, 1839, 2298, 2757, 3216, 3675, 4134, 4593, 5052, 5511, 5970, 6429, 6888
7347, 7806, 8265, 8724, 9183, 9642, 10101, 10560, 11019, 11478, 11937, 12396, 12855, 13314, 13773, 14232
14691, 15150, 15609, 16068, 16527, 16986, 17445, 17904, 18363, 18822, 19281, 19740, 20199, 20658, 21117, 21576
22035, 22494, 22953, 23412, 23871, 24330, 24789, 25248, 25707, 26166, 26625, 27084, 27543, 29260, 28000, 28051
28102, 28153, 28204, 28255, 28306, 28357, 28408, 28459, 28510, 28561, 28612, 28663, 28714, 28765, 28816, 28867
29871, 29873
*elset, elset=ES_THICKNESS
1, 2, 3
*elset, elset=ES_THICKNESS_BACK
457, 458, 459
*elset, elset=ES_THICKNESS_SIDE
232, 233, 234
*elset, elset=ES_WHOLEID
1 ,4 ,7 ,10 ,13 ,16 ,19 ,22 ,25 ,28 ,31 ,34 ,37 ,40 ,43 ,46
49 ,52 ,55 ,58 ,61 ,64 ,67 ,70 ,73 ,76 ,79 ,82 ,85 ,88 ,91 ,94
97 ,100 ,103 ,106 ,109 ,112 ,115 ,118 ,121 ,124 ,127 ,130 ,133 ,136 ,139 ,142
145 ,148 ,151 ,154 ,157 ,160 ,163 ,166 ,169 ,172 ,175 ,178 ,181 ,184 ,187 ,190
193 ,196 ,199 ,202 ,205 ,208 ,211 ,214 ,217 ,220 ,223 ,226 ,229 ,232 ,235 ,238
241 ,244 ,247 ,250 ,253 ,256 ,259 ,262 ,265 ,268 ,271 ,274 ,277 ,280 ,283 ,286
289 ,292 ,295 ,298 ,301 ,304 ,307 ,310 ,313 ,316 ,319 ,322 ,325 ,328 ,331 ,334
337 ,340 ,343 ,346 ,349 ,352 ,355 ,358 ,361 ,364 ,367 ,370 ,373 ,376 ,379 ,382
385 ,388 ,391 ,394 ,397 ,400 ,403 ,406 ,409 ,412 ,415 ,418 ,421 ,424 ,427 ,430
433 ,436 ,439 ,442 ,445 ,448 ,451 ,454 ,457 ,460 ,463 ,466 ,469 ,472 ,475 ,478
481 ,484 ,487 ,490 ,493 ,496 ,499 ,502 ,505 ,508 ,511 ,514 ,517 ,520 ,523 ,526
529 ,532 ,535 ,538 ,541 ,544 ,547 ,550 ,553 ,556 ,559 ,562 ,565 ,568 ,571 ,574
577 ,580 ,583 ,586 ,589 ,592 ,595 ,598 ,601 ,604 ,607 ,610 ,613 ,616 ,619 ,622
625 ,628 ,631 ,634 ,637 ,640 ,643 ,646 ,649 ,652 ,655 ,658 ,661 ,664 ,667 ,670
673 ,676 ,679 ,682 ,685 ,688 ,691 ,694 ,697 ,700 ,703 ,706 ,709 ,712 ,715 ,718
721 ,724 ,727 ,730 ,733 ,736 ,739 ,742 ,745 ,748 ,751 ,754 ,757 ,760 ,763 ,766
769 ,772 ,775 ,778 ,781 ,784 ,787 ,790 ,793 ,796 ,799 ,802 ,805 ,808 ,811 ,814
817 ,820 ,823 ,826 ,829 ,832 ,835 ,838 ,841 ,844 ,847 ,850 ,853 ,856 ,859 ,862
865 ,868 ,871 ,874 ,877 ,880 ,883 ,886 ,889 ,892 ,895 ,898 ,901 ,904 ,907 ,910
913 ,916 ,919 ,922 ,925 ,928 ,931 ,934 ,937 ,940 ,943 ,946 ,949 ,952 ,955 ,958
** ... 663 like lines cut
*node, nset=NS_RPTOP
41689, 0, 0, 2.624885457520
*node, nset=RP_CAV
41690, 0, 0, 0
*element, type=SFM3D3, elset=ES_SURFELS
30142, 41689, 40882, 40881
30143, 40877, 41689, 40878
30144, 40878, 41689, 40879
30145, 40874, 40873, 41689
30146, 40874, 41689, 40875
30147, 40876, 41689, 40877
30148, 40875, 41689, 40876
30149, 40866, 40865, 41689
30150, 40866, 41689, 40867
30151, 40868, 41689, 40869
30152, 40867, 41689, 40868
30153, 41689, 40873, 40872
30154, 40871, 41689, 40872
30155, 40869, 41689, 40870
30156, 40870, 41689, 40871
30157, 40879, 41689, 40880
30158, 40880, 41689, 40881
*orientation, name=ANISOTROPY, system=cylindrical, definition=coordinates
0, 0, 0, 0, 0, 1
*solid section, elset=ES_ALLELEMENTS, material=MATERIAL, orientation=ANISOTROPY
*Hourglass Stiffness
40.0, , , 
*transform, nset=NS_ALLNODES, type=C
0, 0, 0, 0, 0, 1
*surface section, elset=ES_SURFELS
*end part
****************************************
*************** Assembly ***************
****************************************
*assembly, name=ASSEMBLY
*instance, name=INSTANCE, part=PART
*end instance
*transform, nset=INSTANCE.NS_RPTOP, type=C
0, 0, 0, 0, 0, 1
** Riks displacement monitoring node must be defined in the assembly
*nset, nset=RIKSMON, instance=INSTANCE
NS_DISPROT_LO
*surface, type=node, name=SURF_TOPSURFACE
INSTANCE.NS_TOPSURFACE
*surface, type=node, name=SURF_BOTSURFACE
INSTANCE.NS_BOTTOMSURFACE
*surface, type=element, name=SURF_IDSURFACE
INSTANCE.ES_WHOLEID, S6
*orientation, name=ORI_COUPLING, system=cylindrical, definition=coordinates
0, 0, 0, 0, 0, 1
*coupling, constraint name=CONSTRAINT_TOPSURFACE, ref nod=INSTANCE.NS_RPTOP, surface=SURF_TOPSURFACE, orientation=ORI_COUPLING
*kinematic
** Surface definition for the fluid cavity
*surface, type=element, name=SURF_CAVITY
INSTANCE.ES_SURFELS, SPOS
INSTANCE.ES_WHOLEID, S6
*end assembly
****************************************
***************  MATERIAL **************
****************************************
*material, name=MATERIAL
*elastic
10250, 0.33
*plastic
30.717841110000, 0.000000000000
33.070245804398, 0.000165780000
35.672102167082, 0.000618690000
37.193129513124, 0.001246940000
38.184682684043, 0.001961030000
38.894286762538, 0.002731420000
39.429114723279, 0.003552630000
39.843700583721, 0.004402730000
40.177917762759, 0.005277280000
40.458109304982, 0.006180060000
40.695672150690, 0.007120450000
40.900212178726, 0.008076230000
41.078961366067, 0.009048880000
41.238625450132, 0.010038990000
41.382974283433, 0.011031750000
41.515141724856, 0.012023250000
41.638464427956, 0.013006030000
41.754656081369, 0.013970050000
41.865655729165, 0.014911140000
41.972684725448, 0.015829610000
** ... 325 like lines cut
****************************************
*************** FLUID CAV  *************
****************************************
*fluid behavior, name=FLUID
*fluid density
1.0
*fluid cavity, name=FLUIDCAVITY, behavior=FLUID, refnode=INSTANCE.RP_CAV, surface=SURF_CAVITY

*boundary
** Top Ref Pt:  Only U3, UR3 permitted
INSTANCE.NS_RPTOP, 1, 2
INSTANCE.NS_RPTOP, 4, 5
** AxialSymmetry Nodes:  Same as YSYMM
INSTANCE.NS_AXIALSYMM, 2, 
**INSTANCE.NS_AXIALSYMM, 4, 
**INSTANCE.NS_AXIALSYMM, 6, 
** Bottom surface nodes:  Same as ZSYMM
INSTANCE.NS_BOTTOMSURFACE, 3, 3 
** Cavity reference node fully constrained
INSTANCE.RP_CAV, 1, 6
****************************************
*************** STEP *******************
****************************************
*step, name=STEP, nlgeom=yes, inc=200
*static
0.0025, 1., 1e-06, .0025
*fluid flux
INSTANCE.RP_CAV, 0.968
*output, field, frequency=1
** COORn must be called under history output, but COORD can be called in field
*node output, nset=INSTANCE.NS_DISPROT_LO
U, UR
*node output, nset=INSTANCE.NS_DISPROT_HI
U, UR
*node output, nset=INSTANCE.NS_ALLNODES
U, UR
*node output, nset=INSTANCE.NS_RPTOP
U, UR, CF
*element output, elset=INSTANCE.ES_ALLELEMENTS, directions=YES
S, PE, LE, P
*output, history, frequency=1
*node output, nset=INSTANCE.RP_CAV
CVOL, PCAV
*end step
