** GMPT=4
** alpha = 0.500
** num_el_fine_th = 3
** Axial Imperfection = 0.0 #Not percentage
** Circumferential Imperfection = 0.0 #Not percentage
** Eccentricity = 0.00 # Percentage
** Rm = 0.8390
** tg = 0.0498
** ID = 1.6282
** constit = "vm"
** Fluid Cavity and elements.  If alpha = 0.5, then flux control
** 15120 nodes, 10284 elements.
** Generated on 9/13/2018 at 8:13
*Heading
Z is Tube Axis
Min Wall Thickness is (x>0,y=0)
*Preprint, echo=NO, model=NO, history=NO, contact=NO
****************************************
***************** PART *****************
****************************************
*part, name=PART
*node, nset=NS_ALLNODES
1, 0.814100000000, 0.000000000000, 0.000000000000
2, 0.813928387316, 0.016714972970, 0.000000000000
3, 0.813413621616, 0.033422898890, 0.000000000000
4, 0.812555919925, 0.050116733684, 0.000000000000
5, 0.811355643852, 0.066789439212, 0.000000000000
6, 0.809813299433, 0.083433986247, 0.000000000000
7, 0.807929536924, 0.100043357430, 0.000000000000
8, 0.805705150520, 0.116610550235, 0.000000000000
9, 0.803141078024, 0.133128579915, 0.000000000000
10, 0.800238400453, 0.149590482454, 0.000000000000
11, 0.796998341577, 0.165989317498, 0.000000000000
12, 0.793422267409, 0.182318171280, 0.000000000000
13, 0.789511685626, 0.198570159540, 0.000000000000
14, 0.785268244932, 0.214738430424, 0.000000000000
15, 0.780693734367, 0.230816167372, 0.000000000000
16, 0.775790082548, 0.246796591995, 0.000000000000
17, 0.770559356860, 0.262672966930, 0.000000000000
18, 0.765003762582, 0.278438598681, 0.000000000000
19, 0.759125641958, 0.294086840443, 0.000000000000
20, 0.752927473210, 0.309611094901, 0.000000000000
** ... 15100 like lines cut
*element, type=C3D8R, elset=ES_ALLELEMENTS
1, 114, 142, 141, 113, 2, 30, 29, 1
2, 142, 170, 169, 141, 30, 58, 57, 29
3, 170, 198, 197, 169, 58, 86, 85, 57
4, 115, 143, 142, 114, 3, 31, 30, 2
5, 143, 171, 170, 142, 31, 59, 58, 30
6, 171, 199, 198, 170, 59, 87, 86, 58
7, 116, 144, 143, 115, 4, 32, 31, 3
8, 144, 172, 171, 143, 32, 60, 59, 31
9, 172, 200, 199, 171, 60, 88, 87, 59
10, 117, 145, 144, 116, 5, 33, 32, 4
11, 145, 173, 172, 144, 33, 61, 60, 32
12, 173, 201, 200, 172, 61, 89, 88, 60
13, 118, 146, 145, 117, 6, 34, 33, 5
14, 146, 174, 173, 145, 34, 62, 61, 33
15, 174, 202, 201, 173, 62, 90, 89, 61
16, 119, 147, 146, 118, 7, 35, 34, 6
17, 147, 175, 174, 146, 35, 63, 62, 34
18, 175, 203, 202, 174, 63, 91, 90, 62
19, 120, 148, 147, 119, 8, 36, 35, 7
20, 148, 176, 175, 147, 36, 64, 63, 35
** ... 10264 like lines cut
*nset, nset=NS_TOPSURFACE
10593, 10594, 10595, 10596, 10597, 10598, 10599, 10600, 10601, 10602, 10603, 10604, 10605, 10606, 10607, 10608
10609, 10610, 10611, 10612, 10613, 10614, 10615, 10616, 10617, 10618, 10619, 10620, 10621, 10622, 10623, 10624
10625, 10626, 10627, 10628
*nset, nset=NS_BOTTOMSURFACE
1, 2, 3, 4, 5, 6, 7, 8, 9, 10, 11, 12, 13, 14, 15, 16
17, 18, 19, 20, 21, 22, 23, 24, 25, 26, 27, 28, 29, 30, 31, 32
33, 34, 35, 36, 37, 38, 39, 40, 41, 42, 43, 44, 45, 46, 47, 48
49, 50, 51, 52, 53, 54, 55, 56, 57, 58, 59, 60, 61, 62, 63, 64
65, 66, 67, 68, 69, 70, 71, 72, 73, 74, 75, 76, 77, 78, 79, 80
81, 82, 83, 84, 85, 86, 87, 88, 89, 90, 91, 92, 93, 94, 95, 96
97, 98, 99, 100, 101, 102, 103, 104, 105, 106, 107, 108, 109, 110, 111, 112
10629, 10630, 10631, 10632, 10633, 10634, 10635, 10636, 10637, 10638, 10639, 10640, 10641, 10642, 10643, 10644
10645, 10646, 10647, 10648, 10649, 10650, 10651, 10652, 10653, 10654, 10655, 10656, 10657, 10658, 10659, 10660
10661, 10662, 10663, 10664, 10665, 10666, 10667, 10668, 10669, 10670, 10671, 10672, 10673, 10674, 10675, 10676
10677, 10678, 10679, 10680, 10681, 10682, 10683, 10684, 10685, 10686, 10687, 10688, 10689, 10690, 10691, 10692
10693, 10694, 10695, 10696, 10697, 10698, 10699, 10700, 10701, 10702, 10703, 10704, 10705, 10706, 10707, 10708
10709, 10710, 10711, 10712, 10713, 10714, 10715, 10716, 10717, 10718, 10719, 10720, 10721, 10722, 10723, 10724
10725, 10726, 10727, 10728, 10729, 10730, 10731, 10732, 10733, 10734, 10735, 10736, 10737, 10738, 10739, 10740
10741, 10742, 10743, 10744, 10745, 10746, 10747, 10748, 10749, 10750, 10751, 10752, 10753, 10754, 10755, 10756
10757, 10758, 10759, 10760, 10761, 10762, 10763, 10764, 10765, 10766, 10767, 10768, 10769, 10770, 10771, 10772
10773, 10774, 10775, 10776, 10777, 10778, 10779, 10780, 10781, 10782, 10783, 10784, 10785, 10786, 10787, 10788
10789, 10790, 10791, 10792, 10793, 10794, 10795, 10796
*nset, nset=NS_DISPROT_HI
10539
*nset, nset=NS_DISPROT_LO
3445
*nset, nset=NS_DISPROT_LO_BACK
12476
*nset, nset=NS_RADIALCONTRACTION
85, 197, 309, 421, 533, 645, 757, 869, 981, 1093, 1205, 1317, 1429, 1541, 1653, 1765
1877, 1989, 2101, 2213, 2325, 2437, 2549, 2661, 2773, 2885, 2997, 3109, 3221, 3333, 3445, 3557
3669, 3781, 3893, 4005, 4117, 4229, 4341, 4453, 4565, 4677, 4789, 4901, 5013, 5125, 5237, 5349
5461, 5573, 5685, 5797, 5909, 6021, 6133, 6245, 6357, 6469, 6581, 6693, 6805, 6917, 7029, 7141
7253, 7365, 7477, 14721, 7557, 7661, 7765, 7869, 7973, 8077, 8181, 8285, 8389, 8493, 8597, 8701
8805, 8909, 9013, 9117, 9221, 9325, 9429, 9533, 9637, 9741, 9845, 9949, 10053, 10157, 10261, 10365
10469, 10539, 10575, 10611
*nset, nset=NS_AXIALSYMM
1, 29, 57, 85, 113, 141, 169, 197, 225, 253, 281, 309, 337, 365, 393, 421
449, 477, 505, 533, 561, 589, 617, 645, 673, 701, 729, 757, 785, 813, 841, 869
897, 925, 953, 981, 1009, 1037, 1065, 1093, 1121, 1149, 1177, 1205, 1233, 1261, 1289, 1317
1345, 1373, 1401, 1429, 1457, 1485, 1513, 1541, 1569, 1597, 1625, 1653, 1681, 1709, 1737, 1765
1793, 1821, 1849, 1877, 1905, 1933, 1961, 1989, 2017, 2045, 2073, 2101, 2129, 2157, 2185, 2213
2241, 2269, 2297, 2325, 2353, 2381, 2409, 2437, 2465, 2493, 2521, 2549, 2577, 2605, 2633, 2661
2689, 2717, 2745, 2773, 2801, 2829, 2857, 2885, 2913, 2941, 2969, 2997, 3025, 3053, 3081, 3109
3137, 3165, 3193, 3221, 3249, 3277, 3305, 3333, 3361, 3389, 3417, 3445, 3473, 3501, 3529, 3557
3585, 3613, 3641, 3669, 3697, 3725, 3753, 3781, 3809, 3837, 3865, 3893, 3921, 3949, 3977, 4005
4033, 4061, 4089, 4117, 4145, 4173, 4201, 4229, 4257, 4285, 4313, 4341, 4369, 4397, 4425, 4453
4481, 4509, 4537, 4565, 4593, 4621, 4649, 4677, 4705, 4733, 4761, 4789, 4817, 4845, 4873, 4901
4929, 4957, 4985, 5013, 5041, 5069, 5097, 5125, 5153, 5181, 5209, 5237, 5265, 5293, 5321, 5349
5377, 5405, 5433, 5461, 5489, 5517, 5545, 5573, 5601, 5629, 5657, 5685, 5713, 5741, 5769, 5797
5825, 5853, 5881, 5909, 5937, 5965, 5993, 6021, 6049, 6077, 6105, 6133, 6161, 6189, 6217, 6245
6273, 6301, 6329, 6357, 6385, 6413, 6441, 6469, 6497, 6525, 6553, 6581, 6609, 6637, 6665, 6693
6721, 6749, 6777, 6805, 6833, 6861, 6889, 6917, 6945, 6973, 7001, 7029, 7057, 7085, 7113, 7141
7169, 7197, 7225, 7253, 7281, 7309, 7337, 7365, 7393, 7421, 7449, 7477, 7505, 7556, 7557, 7608
7609, 7660, 7661, 7712, 7713, 7764, 7765, 7816, 7817, 7868, 7869, 7920, 7921, 7972, 7973, 8024
8025, 8076, 8077, 8128, 8129, 8180, 8181, 8232, 8233, 8284, 8285, 8336, 8337, 8388, 8389, 8440
8441, 8492, 8493, 8544, 8545, 8596, 8597, 8648, 8649, 8700, 8701, 8752, 8753, 8804, 8805, 8856
** ... 12 like lines cut
*elset, elset=ES_Z
3, 84, 165, 246, 327, 408, 489, 570, 651, 732, 813, 894, 975, 1056, 1137, 1218
1299, 1380, 1461, 1542, 1623, 1704, 1785, 1866, 1947, 2028, 2109, 2190, 2271, 2352, 2433, 2514
2595, 2676, 2757, 2838, 2919, 3000, 3081, 3162, 3243, 3324, 3405, 3486, 3567, 3648, 3729, 3810
3891, 3972, 4053, 4134, 4215, 4296, 4377, 4458, 4539, 4620, 4701, 4782, 4863, 4944, 5025, 5106
5187, 5268, 9640, 5347, 5398, 5449, 5500, 5551, 5602, 5653, 5704, 5755, 5806, 5857, 5908, 5959
6010, 6061, 6112, 9747, 9749
*elset, elset=ES_THICKNESS
1, 2, 3
*elset, elset=ES_THICKNESS_BACK
6929, 6930, 6931
*elset, elset=ES_THICKNESS_SIDE
6857, 6858, 6859
*elset, elset=ES_ANALZONE
3, 6, 9, 12, 15, 18, 21, 24, 27, 30, 33, 36, 39, 42, 45, 48
51, 54, 57, 60, 63, 66, 69, 72, 75, 78, 81, 84, 87, 90, 93, 96
99, 102, 105, 108, 111, 114, 117, 120, 123, 126, 129, 132, 135, 138, 141, 144
147, 150, 153, 156, 159, 162, 165, 168, 171, 174, 177, 180, 183, 186, 189, 192
195, 198, 201, 204, 207, 210, 213, 216, 219, 222, 225, 228, 231, 234, 237, 240
243, 246, 249, 252, 255, 258, 261, 264, 267, 270, 273, 276, 279, 282, 285, 288
291, 294, 297, 300, 303, 306, 309, 312, 315, 318, 321, 324, 327, 330, 333, 336
339, 342, 345, 348, 351, 354, 357, 360, 363, 366, 369, 372, 375, 378, 381, 384
387, 390, 393, 396, 399, 402, 405, 408, 411, 414, 417, 420, 423, 426, 429, 432
435, 438, 441, 444, 447, 450, 453, 456, 459, 462, 465, 468, 471, 474, 477, 480
483, 486, 489, 492, 495, 498, 501, 504, 507, 510, 513, 516, 519, 522, 525, 528
531, 534, 537, 540, 543, 546, 549, 552, 555, 558, 561, 564, 567, 570, 573, 576
579, 582, 585, 588, 591, 594, 597, 600, 603, 606, 609, 612, 615, 618, 621, 624
627, 630, 633, 636, 639, 642, 645, 648, 651, 654, 657, 660, 663, 666, 669, 672
675, 678, 681, 684, 687, 690, 693, 696, 699, 702, 705, 708, 711, 714, 717, 720
723, 726, 729, 732, 735, 738, 741, 744, 747, 750, 753, 756, 759, 762, 765, 768
771, 774, 777, 780, 783, 786, 789, 792, 795, 798, 801, 804, 807, 810, 813, 816
819, 822, 825, 828, 831, 834, 837, 840, 843, 846, 849, 852, 855, 858, 861, 864
867, 870, 873, 876, 879, 882, 885, 888, 891, 894, 897, 900, 903, 906, 909, 912
915, 918, 921, 924, 927, 930, 933, 936, 939, 942, 945, 948, 951, 954, 957, 960
** ... 32 like lines cut
*elset, elset=ES_LEPROF
3, 6, 9, 12, 15, 18, 21, 24, 27, 30, 33, 36, 39, 42, 45, 48
51, 54, 57, 60, 63, 66
*elset, elset=ES_WHOLEID
1 ,4 ,7 ,10 ,13 ,16 ,19 ,22 ,25 ,28 ,31 ,34 ,37 ,40 ,43 ,46
49 ,52 ,55 ,58 ,61 ,64 ,67 ,70 ,73 ,76 ,79 ,82 ,85 ,88 ,91 ,94
97 ,100 ,103 ,106 ,109 ,112 ,115 ,118 ,121 ,124 ,127 ,130 ,133 ,136 ,139 ,142
145 ,148 ,151 ,154 ,157 ,160 ,163 ,166 ,169 ,172 ,175 ,178 ,181 ,184 ,187 ,190
193 ,196 ,199 ,202 ,205 ,208 ,211 ,214 ,217 ,220 ,223 ,226 ,229 ,232 ,235 ,238
241 ,244 ,247 ,250 ,253 ,256 ,259 ,262 ,265 ,268 ,271 ,274 ,277 ,280 ,283 ,286
289 ,292 ,295 ,298 ,301 ,304 ,307 ,310 ,313 ,316 ,319 ,322 ,325 ,328 ,331 ,334
337 ,340 ,343 ,346 ,349 ,352 ,355 ,358 ,361 ,364 ,367 ,370 ,373 ,376 ,379 ,382
385 ,388 ,391 ,394 ,397 ,400 ,403 ,406 ,409 ,412 ,415 ,418 ,421 ,424 ,427 ,430
433 ,436 ,439 ,442 ,445 ,448 ,451 ,454 ,457 ,460 ,463 ,466 ,469 ,472 ,475 ,478
481 ,484 ,487 ,490 ,493 ,496 ,499 ,502 ,505 ,508 ,511 ,514 ,517 ,520 ,523 ,526
529 ,532 ,535 ,538 ,541 ,544 ,547 ,550 ,553 ,556 ,559 ,562 ,565 ,568 ,571 ,574
577 ,580 ,583 ,586 ,589 ,592 ,595 ,598 ,601 ,604 ,607 ,610 ,613 ,616 ,619 ,622
625 ,628 ,631 ,634 ,637 ,640 ,643 ,646 ,649 ,652 ,655 ,658 ,661 ,664 ,667 ,670
673 ,676 ,679 ,682 ,685 ,688 ,691 ,694 ,697 ,700 ,703 ,706 ,709 ,712 ,715 ,718
721 ,724 ,727 ,730 ,733 ,736 ,739 ,742 ,745 ,748 ,751 ,754 ,757 ,760 ,763 ,766
769 ,772 ,775 ,778 ,781 ,784 ,787 ,790 ,793 ,796 ,799 ,802 ,805 ,808 ,811 ,814
817 ,820 ,823 ,826 ,829 ,832 ,835 ,838 ,841 ,844 ,847 ,850 ,853 ,856 ,859 ,862
865 ,868 ,871 ,874 ,877 ,880 ,883 ,886 ,889 ,892 ,895 ,898 ,901 ,904 ,907 ,910
913 ,916 ,919 ,922 ,925 ,928 ,931 ,934 ,937 ,940 ,943 ,946 ,949 ,952 ,955 ,958
** ... 257 like lines cut
*node, nset=NS_RPTOP
15121, 0, 0, 2.624893864941
*node, nset=RP_CAV
15122, 0, 0, 0
*element, type=SFM3D3, elset=ES_SURFELS
10285, 15121, 10610, 10609
10286, 15121, 10609, 10608
10287, 15121, 10608, 10607
10288, 15121, 10607, 10606
10289, 15121, 10606, 10605
10290, 15121, 10605, 10604
10291, 15121, 10604, 10603
10292, 15121, 10603, 10602
10293, 15121, 10602, 10601
10294, 15121, 10601, 10600
10295, 15121, 10600, 10599
10296, 15121, 10599, 10598
10297, 15121, 10598, 10597
10298, 15121, 10597, 10596
10299, 15121, 10596, 10595
10300, 15121, 10595, 10594
10301, 15121, 10594, 10593
*orientation, name=ANISOTROPY, system=cylindrical, definition=coordinates
0, 0, 0, 0, 0, 1
*solid section, elset=ES_ALLELEMENTS, material=MATERIAL, orientation=ANISOTROPY
*Hourglass Stiffness
40.0, , , 
*transform, nset=NS_ALLNODES, type=C
0, 0, 0, 0, 0, 1
*surface section, elset=ES_SURFELS
*end part
****************************************
*************** Assembly ***************
****************************************
*assembly, name=ASSEMBLY
*instance, name=INSTANCE, part=PART
*end instance
*transform, nset=INSTANCE.NS_RPTOP, type=C
0, 0, 0, 0, 0, 1
** Riks displacement monitoring node must be defined in the assembly
*nset, nset=RIKSMON, instance=INSTANCE
NS_DISPROT_LO
*surface, type=node, name=SURF_TOPSURFACE
INSTANCE.NS_TOPSURFACE
*surface, type=node, name=SURF_BOTSURFACE
INSTANCE.NS_BOTTOMSURFACE
*surface, type=element, name=SURF_IDSURFACE
INSTANCE.ES_WHOLEID, S6
*orientation, name=ORI_COUPLING, system=cylindrical, definition=coordinates
0, 0, 0, 0, 0, 1
*coupling, constraint name=CONSTRAINT_TOPSURFACE, ref nod=INSTANCE.NS_RPTOP, surface=SURF_TOPSURFACE, orientation=ORI_COUPLING
*kinematic
** Surface definition for the fluid cavity
*surface, type=element, name=SURF_CAVITY
INSTANCE.ES_SURFELS, SPOS
INSTANCE.ES_WHOLEID, S6
*end assembly
****************************************
***************  MATERIAL **************
****************************************
** This is Extraction Iteratoin 85
*material, name=MATERIAL
*elastic
10036, 0.320
*plastic
37.21720367, 0.00000000
38.54563627, 0.00015865
39.36944847, 0.00039025
39.86620373, 0.00065833
40.22064525, 0.00095938
40.50853610, 0.00128188
40.69481322, 0.00163128
40.87773414, 0.00198386
41.01754094, 0.00233464
41.16064429, 0.00267999
41.25634481, 0.00306269
41.34698791, 0.00344675
41.45506000, 0.00380979
41.51632982, 0.00419944
41.57763506, 0.00458893
41.63897573, 0.00497826
41.70035182, 0.00536743
41.76176333, 0.00575644
41.82269571, 0.00614319
41.88183173, 0.00653265
** ... 292 like lines cut
****************************************
*************** FLUID CAV  *************
****************************************
*fluid behavior, name=FLUID
*fluid density
1.0
*fluid cavity, name=FLUIDCAVITY, behavior=FLUID, refnode=INSTANCE.RP_CAV, surface=SURF_CAVITY

*boundary
** Top Ref Pt:  Only U3, UR3 permitted
INSTANCE.NS_RPTOP, 1, 2
INSTANCE.NS_RPTOP, 4, 5
** AxialSymmetry Nodes:  Same as YSYMM
INSTANCE.NS_AXIALSYMM, 2, 
**INSTANCE.NS_AXIALSYMM, 4, 
**INSTANCE.NS_AXIALSYMM, 6, 
** Bottom surface nodes:  Same as ZSYMM
INSTANCE.NS_BOTTOMSURFACE, 3, 3 
** Cavity reference node fully constrained
INSTANCE.RP_CAV, 1, 6
****************************************
*************** STEP *******************
****************************************
*step, name=STEP, nlgeom=yes, inc=1000
*static
0.00125, 1., 1e-06, .002
**[1]Initial incr, [2]Total step, [3]Min incr, [4]Max incr
*fluid flux
INSTANCE.RP_CAV, 0.290
** Increase number of increment cutbacks permitted
*controls, parameters=time incrementation
 , , , , , , , 10, , , , ,
*output, field, frequency=1
** COORn must be called under history output, but COORD can be called in field
*node output, nset=INSTANCE.NS_DISPROT_LO
U, UR
*node output, nset=INSTANCE.NS_DISPROT_HI
U, UR
*node output, nset=INSTANCE.NS_ALLNODES
U, UR
*node output, nset=INSTANCE.NS_RPTOP
U, UR, CF
*element output, elset=INSTANCE.ES_LEPROF
COORD
*element output, elset=INSTANCE.ES_ALLELEMENTS, directions=YES
S, PE, LE, P
*output, history, frequency=1
*node output, nset=INSTANCE.RP_CAV
CVOL, PCAV
** Note:  This node print will result in abaqus printing
** Nearly 80000 lines worth of meaningless nodal-connectivity
** information to the dat file.
*node print, nset=INSTANCE.RP_CAV, summary=NO
CVOL
*end step
